data/ENWL/enwl_phase_to_neutral_embedded/network_23/Feeder_2/Loads.txt
! Imported from Loads.txt, with modified neutral terminal
! -------------------------------------------------------------------------
New Load.LOAD1 Phases=1 Bus1=105.3 kV=0.23 kW=1.968  PF=0.95
New Load.LOAD2 Phases=1 Bus1=123.3 kV=0.23 kW=0.306  PF=0.95
New Load.LOAD3 Phases=1 Bus1=148.1 kV=0.23 kW=2.94  PF=0.95
New Load.LOAD4 Phases=1 Bus1=159.1 kV=0.23 kW=0.324  PF=0.95
New Load.LOAD5 Phases=1 Bus1=161.2 kV=0.23 kW=1.332  PF=0.95
New Load.LOAD6 Phases=1 Bus1=164.2 kV=0.23 kW=3.0540000000000003  PF=0.95
New Load.LOAD7 Phases=1 Bus1=188.2 kV=0.23 kW=2.0580000000000003  PF=0.95
New Load.LOAD8 Phases=1 Bus1=190.2 kV=0.23 kW=0.29400000000000004  PF=0.95
New Load.LOAD9 Phases=1 Bus1=196.1 kV=0.23 kW=0.312  PF=0.95
New Load.LOAD10 Phases=1 Bus1=197.1 kV=0.23 kW=0.27  PF=0.95
New Load.LOAD11 Phases=1 Bus1=198.1 kV=0.23 kW=0.33  PF=0.95
New Load.LOAD12 Phases=1 Bus1=202.3 kV=0.23 kW=0.33  PF=0.95
New Load.LOAD13 Phases=1 Bus1=203.1 kV=0.23 kW=0.246  PF=0.95
New Load.LOAD14 Phases=1 Bus1=206.3 kV=0.23 kW=2.04  PF=0.95
New Load.LOAD15 Phases=1 Bus1=257.2 kV=0.23 kW=0.8280000000000001  PF=0.95
New Load.LOAD16 Phases=1 Bus1=268.1 kV=0.23 kW=0.11399999999999999  PF=0.95
New Load.LOAD17 Phases=1 Bus1=300.1 kV=0.23 kW=0.28800000000000003  PF=0.95
New Load.LOAD18 Phases=1 Bus1=318.3 kV=0.23 kW=0.324  PF=0.95
New Load.LOAD19 Phases=1 Bus1=330.3 kV=0.23 kW=1.944  PF=0.95
New Load.LOAD20 Phases=1 Bus1=351.1 kV=0.23 kW=0.264  PF=0.95
New Load.LOAD21 Phases=1 Bus1=356.3 kV=0.23 kW=0.336  PF=0.95
New Load.LOAD22 Phases=1 Bus1=368.3 kV=0.23 kW=0.966  PF=0.95
New Load.LOAD23 Phases=1 Bus1=383.1 kV=0.23 kW=0.246  PF=0.95
New Load.LOAD24 Phases=1 Bus1=391.2 kV=0.23 kW=1.956  PF=0.95
New Load.LOAD25 Phases=1 Bus1=405.2 kV=0.23 kW=0.29400000000000004  PF=0.95
New Load.LOAD26 Phases=1 Bus1=407.1 kV=0.23 kW=0.336  PF=0.95
New Load.LOAD27 Phases=1 Bus1=412.1 kV=0.23 kW=0.27  PF=0.95
New Load.LOAD28 Phases=1 Bus1=421.1 kV=0.23 kW=0.276  PF=0.95
New Load.LOAD29 Phases=1 Bus1=438.2 kV=0.23 kW=0.34800000000000003  PF=0.95
New Load.LOAD30 Phases=1 Bus1=449.2 kV=0.23 kW=0.264  PF=0.95
New Load.LOAD31 Phases=1 Bus1=453.3 kV=0.23 kW=0.28200000000000003  PF=0.95
New Load.LOAD32 Phases=1 Bus1=461.2 kV=0.23 kW=0.342  PF=0.95
New Load.LOAD33 Phases=1 Bus1=462.2 kV=0.23 kW=0.28800000000000003  PF=0.95
New Load.LOAD34 Phases=1 Bus1=471.3 kV=0.23 kW=2.748  PF=0.95
New Load.LOAD35 Phases=1 Bus1=479.1 kV=0.23 kW=0.9612  PF=0.95
New Load.LOAD36 Phases=1 Bus1=493.1 kV=0.23 kW=0.318  PF=0.95
New Load.LOAD37 Phases=1 Bus1=513.2 kV=0.23 kW=0.28200000000000003  PF=0.95
New Load.LOAD38 Phases=1 Bus1=516.1 kV=0.23 kW=0.276  PF=0.95
New Load.LOAD39 Phases=1 Bus1=538.1 kV=0.23 kW=9.738  PF=0.95
New Load.LOAD40 Phases=1 Bus1=547.3 kV=0.23 kW=0.28800000000000003  PF=0.95
New Load.LOAD41 Phases=1 Bus1=587.1 kV=0.23 kW=0.28800000000000003  PF=0.95
New Load.LOAD42 Phases=1 Bus1=599.2 kV=0.23 kW=0.15000000000000002  PF=0.95
New Load.LOAD43 Phases=1 Bus1=600.3 kV=0.23 kW=0.318  PF=0.95
New Load.LOAD44 Phases=1 Bus1=604.2 kV=0.23 kW=1.8719999999999999  PF=0.95
New Load.LOAD45 Phases=1 Bus1=605.2 kV=0.23 kW=5.586  PF=0.95
New Load.LOAD46 Phases=1 Bus1=616.2 kV=0.23 kW=0.336  PF=0.95
! -------------------------------------------------------------------------